[General]
cmdenv-status-frequency = 1800s
sim-time-limit = 1hours
num-rngs = 4
**.blockproxy.rng-0 = 0
**.proxy.rng-0 = 0
**.gate.rng-0 = 1
**.coordinator.rng-0 = 2
**.browser.rng-0 = 3
**.node11.route.table = xmldoc("data/routes.xml", "/root/table[@id='11']")
**.node10.route.table = xmldoc("data/routes.xml", "/root/table[@id='10']")
**.node13.route.table = xmldoc("data/routes.xml", "/root/table[@id='13']")
**.gate4.route.table = xmldoc("data/routes.xml", "/root/table[@id='g4']")
**.gate3.route.table = xmldoc("data/routes.xml", "/root/table[@id='g3']")
**.gate2.route.table = xmldoc("data/routes.xml", "/root/table[@id='g2']")
**.gate1.route.table = xmldoc("data/routes.xml", "/root/table[@id='g1']")
**.gate0.route.table = xmldoc("data/routes.xml", "/root/table[@id='g0']")
**.node1.route.table = xmldoc("data/routes.xml", "/root/table[@id='1']")
**.node0.route.table = xmldoc("data/routes.xml", "/root/table[@id='0']")
**.node3.route.table = xmldoc("data/routes.xml", "/root/table[@id='3']")
**.node2.route.table = xmldoc("data/routes.xml", "/root/table[@id='2']")
**.node5.route.table = xmldoc("data/routes.xml", "/root/table[@id='5']")
**.node4.route.table = xmldoc("data/routes.xml", "/root/table[@id='4']")
**.node7.route.table = xmldoc("data/routes.xml", "/root/table[@id='7']")
**.node6.route.table = xmldoc("data/routes.xml", "/root/table[@id='6']")
**.node9.route.table = xmldoc("data/routes.xml", "/root/table[@id='9']")
**.node8.route.table = xmldoc("data/routes.xml", "/root/table[@id='8']")
**.node12.route.table = xmldoc("data/routes.xml", "/root/table[@id='12']")
**.node14.route.table = xmldoc("data/routes.xml", "/root/table[@id='14']")
**.node11.address = 11
**.node10.address = 10
**.node13.address = 13
**.gate4.address = 168034304
**.h4[*].gateway = 168034304
**.gate*.gate.numberOfVideos = 5000
**.gate3.address = 167968768
**.h3[*].gateway = 167968768
**.gate2.address = 167903232
**.h2[*].gateway = 167903232
**.gate1.address = 167837696
**.h1[*].gateway = 167837696
**.gate0.address = 167772160
**.h0[*].gateway = 167772160
**.node1.address = 1
**.node0.address = 0
**.node3.address = 3
**.node2.address = 2
**.node5.address = 5
**.node4.address = 4
**.node7.address = 7
**.node6.address = 6
**.node9.address = 9
**.node8.address = 8
**.node12.address = 12
**.node14.address = 14

[Config ProxyNet]
network = ProxyNet
**.node*.numberOfServers = 15
**.gate4.gate.cluster = xmldoc("data/proxies.xml", "/root/proxy[@id='4']")
**.gate3.gate.cluster = xmldoc("data/proxies.xml", "/root/proxy[@id='0']")
**.gate2.gate.cluster = xmldoc("data/proxies.xml", "/root/proxy[@id='14']")
**.gate1.gate.cluster = xmldoc("data/proxies.xml", "/root/proxy[@id='10']")
**.gate0.gate.cluster = xmldoc("data/proxies.xml", "/root/proxy[@id='12']")

[Config BlockProxyNet]
network = BlockProxyNet
**.node*.numberOfServers = 15
**.gate4.gate.cluster = xmldoc("data/proxies.xml", "/root/proxy[@id='4']")
**.gate3.gate.cluster = xmldoc("data/proxies.xml", "/root/proxy[@id='0']")
**.gate2.gate.cluster = xmldoc("data/proxies.xml", "/root/proxy[@id='14']")
**.gate1.gate.cluster = xmldoc("data/proxies.xml", "/root/proxy[@id='10']")
**.gate0.gate.cluster = xmldoc("data/proxies.xml", "/root/proxy[@id='12']")

[Config ClusterNet]
network = ClusterNet
**.node11.centralServerIP = 11
**.node10.centralServerIP = 11
**.node13.centralServerIP = 11
**.node12.centralServerIP = 3
**.node14.centralServerIP = 11
**.node1.centralServerIP = 3
**.node0.centralServerIP = 11
**.node3.centralServerIP = 3
**.node2.centralServerIP = 11
**.node5.centralServerIP = 3
**.node4.centralServerIP = 3
**.node7.centralServerIP = 11
**.node6.centralServerIP = 11
**.node9.centralServerIP = 11
**.node8.centralServerIP = 11
**.gate4.gate.cluster = xmldoc("data/clusters.xml", "/root/cluster[@id='3']")
**.gate3.gate.cluster = xmldoc("data/clusters.xml", "/root/cluster[@id='11']")
**.gate2.gate.cluster = xmldoc("data/clusters.xml", "/root/cluster[@id='11']")
**.gate1.gate.cluster = xmldoc("data/clusters.xml", "/root/cluster[@id='11']")
**.gate0.gate.cluster = xmldoc("data/clusters.xml", "/root/cluster[@id='3']")
**.node11.coordinator.clusters = xmldoc("data/clusters.xml", "/root")
**.node3.coordinator.clusters = xmldoc("data/clusters.xml", "/root")

[Config StatsNet]
network = ClusterNet
**.server.reportStats = true
**.server.reportInterval = 240
**.coordinator.analysisStats = true
**.coordinator.hotspotAnalysisInterval = 900
**.coordinator.hotspotPercent = 5
**.coordinator.hotspotMinHits = 30
**.coordinator.precachingAnalysisInterval = 600
**.coordinator.precachingPercent = 60
**.node11.centralServerIP = 11
**.node10.centralServerIP = 11
**.node13.centralServerIP = 11
**.node12.centralServerIP = 3
**.node14.centralServerIP = 11
**.node1.centralServerIP = 3
**.node0.centralServerIP = 11
**.node3.centralServerIP = 3
**.node2.centralServerIP = 11
**.node5.centralServerIP = 3
**.node4.centralServerIP = 3
**.node7.centralServerIP = 11
**.node6.centralServerIP = 11
**.node9.centralServerIP = 11
**.node8.centralServerIP = 11
**.gate4.gate.cluster = xmldoc("data/clusters.xml", "/root/cluster[@id='3']")
**.gate3.gate.cluster = xmldoc("data/clusters.xml", "/root/cluster[@id='11']")
**.gate2.gate.cluster = xmldoc("data/clusters.xml", "/root/cluster[@id='11']")
**.gate1.gate.cluster = xmldoc("data/clusters.xml", "/root/cluster[@id='11']")
**.gate0.gate.cluster = xmldoc("data/clusters.xml", "/root/cluster[@id='3']")
**.node11.coordinator.clusters = xmldoc("data/clusters.xml", "/root")
**.node3.coordinator.clusters = xmldoc("data/clusters.xml", "/root")

